564
Lattice="16.708179 0.0  0.0  0.000000 12.324053  0.0  0.000000 0.000000 39.774903"
H   7.983961   7.368080   0.768397
H   8.884592   8.009071   0.802208
H   9.439733   8.701895   -0.333473
H   8.918378   8.686059   -1.301314
H   10.584535   9.560364   -0.241817
H   11.236390   9.636161   1.042074
H   12.205972   10.217699   1.142965
H   10.752758   8.914177   2.164456
H   11.276199   9.038287   3.077420
H   9.550405   8.144608   2.069734
H   8.744516   7.242219   3.440592
H   8.910869   6.041990   7.899710
H   9.282362   6.839703   7.270609
H   9.397438   6.519930   5.874521
H   9.210404   5.543874   5.478298
H   9.751201   7.563782   4.978236
H   9.505564   8.474110   9.108893
H   10.068672   8.868350   5.460989
H   10.274962   9.692607   4.732403
H   10.018278   9.146241   6.860933
H   10.342210   10.150591   7.209784
H   9.562486   8.148032   7.784936
H   10.483566   10.072456   37.324720
H   8.192735   8.003054   11.389844
H   8.914009   7.242976   11.147705
H   9.649573   7.392274   9.884667
H   10.590414   6.349758   9.549928
H   11.130758   6.424380   8.610537
H   10.859150   5.246978   10.386398
H   11.581644   4.458451   10.151342
H   10.142164   5.164633   11.621857
H   10.338583   4.338331   12.311976
H   9.161078   6.142717   12.003123
H   8.006784   5.569073   13.390388
H   9.114699   5.102001   18.077070
H   9.030045   5.890814   17.315064
H   8.786034   5.400574   16.012269
H   8.804804   4.290790   15.842255
H   8.645774   6.318553   14.907348
H   9.313358   7.744301   18.918518
H   8.703913   7.735121   15.180799
H   8.603787   8.459684   14.419838
H   8.889533   8.189443   16.511459
H   8.910709   9.254721   16.678055
H   9.118360   7.299085   17.636351
H   7.080695   4.674395   21.646240
H   7.802175   5.490227   21.505651
H   8.021248   6.034252   20.196905
H   7.384492   5.704000   19.407393
H   8.959014   7.118805   20.028428
H   9.634533   7.584590   21.263845
H   10.374703   8.362048   21.101746
H   9.349247   7.010275   22.534777
H   9.836698   7.399311   23.452748
H   8.451129   5.941685   22.665523
H   8.306879   4.759195   24.278088
H   7.580456   5.757530   29.156697
H   7.502111   6.257180   28.157911
H   7.695747   5.384571   27.016156
H   7.935076   4.346255   27.139259
H   7.650817   5.884958   25.718910
H   6.850854   8.441577   29.132079
H   7.319101   7.236091   25.532626
H   7.193328   7.624683   24.497932
H   7.058013   8.090378   26.641204
H   6.710880   9.156364   26.519183
H   7.124608   7.641205   28.023934
H   5.967403   9.005083   31.411588
H   6.971310   8.677278   31.428167
H   7.612482   8.206226   30.189253
H   8.985169   7.766513   30.175855
H   9.474938   7.430092   29.259547
H   9.702781   7.958171   31.379372
H   10.788106   7.773222   31.353280
H   9.085395   8.330484   32.635482
H   9.728349   8.464239   33.532375
H   7.715892   8.727073   32.647026
H   6.990668   9.529713   34.151068
H   10.904046   7.940687   37.035590
H   10.280562   8.800095   36.692329
H   9.239745   8.609696   35.729574
H   9.009927   7.610131   35.364557
H   8.500117   9.725430   35.276464
H   11.174734   10.183047   38.529723
H   8.768222   11.005716   35.783215
H   8.220230   11.895778   35.459276
H   9.821050   11.197602   36.779149
H   9.937163   12.226559   37.203251
H   12.259294   6.008414   0.523578
H   13.157981   6.574212   0.866891
H   13.783941   7.493332   -0.013306
H   13.363064   7.605694   -0.987682
H   15.032146   8.161327   0.291408
H   15.505912   8.000950   1.664151
H   16.454485   8.492387   2.015100
H   14.826413   7.139258   2.540816
H   15.238923   7.017880   3.522518
H   13.647979   6.399028   2.197403
H   12.878083   5.250453   3.383416
H   13.679594   4.539436   8.320932
H   13.623558   5.310843   7.518211
H   13.489938   4.908673   6.154916
H   13.605769   3.824609   5.928944
H   13.300781   5.828048   5.104105
H   13.549797   7.264827   9.039930
H   13.136953   7.230620   5.409406
H   13.050098   7.958098   4.598940
H   13.212899   7.638248   6.736386
H   13.079251   8.695001   6.885266
H   13.509964   6.718909   7.859666
H   15.177469   9.357606   38.016634
H   12.196139   7.554580   11.266631
H   12.979833   6.780293   11.388462
H   13.760364   6.488399   10.221996
H   14.830814   5.541800   10.327498
H   15.444184   5.225323   9.496181
H   15.035757   4.836887   11.558050
H   15.795423   4.081963   11.609193
H   14.243815   5.089707   12.735862
H   14.413841   4.563628   13.636759
H   13.251106   6.095374   12.648729
H   11.978082   6.161838   13.934984
H   12.017726   3.928165   18.395118
H   12.530672   4.619375   17.742963
H   12.085851   4.787745   16.397081
H   11.267129   4.210358   16.066266
H   12.782647   5.712529   15.531947
H   14.377411   4.769438   19.259842
H   13.855904   6.523134   16.001221
H   14.352404   7.306016   15.420423
H   14.397151   6.196159   17.286901
H   15.268673   6.752119   17.660624
H   13.731413   5.283974   18.196441
H   11.285838   5.888852   22.464310
H   12.180071   5.317843   22.231958
H   12.694179   5.477642   20.901796
H   12.185669   6.141108   20.151300
H   13.862524   4.750969   20.501821
H   14.544876   4.063731   21.572443
H   15.526280   3.566155   21.460238
H   13.985397   3.993233   22.894511
H   14.545061   3.408373   23.573623
H   12.760994   4.532109   23.263241
H   11.825856   3.875933   24.896181
H   15.233585   4.334278   28.562878
H   14.279796   4.786154   28.224207
H   13.840625   4.473270   26.873246
H   14.478252   3.772696   26.301623
H   12.660290   4.944461   26.307134
H   14.196060   6.207090   30.184648
H   11.932142   5.854269   27.091867
H   11.025759   6.343552   26.640893
H   12.461276   6.300892   28.350378
H   11.963066   7.105110   28.898549
H   13.635572   5.789601   29.027164
H   14.999558   8.571942   31.017284
H   14.309202   8.129271   31.685567
H   13.656213   6.886969   31.218814
H   12.588074   6.362220   32.020841
H   12.035647   5.436033   31.774730
H   12.206797   7.008288   33.217727
H   11.383280   6.617697   33.826897
H   12.889961   8.207643   33.661069
H   12.501300   8.733924   34.559605
H   13.906130   8.765091   32.879474
H   14.760434   10.407672   33.393628
H   15.860517   7.397569   37.252833
H   15.421345   8.370292   37.023507
H   15.220648   8.696553   35.627742
H   15.351046   7.947304   34.874365
H   14.864454   9.985330   35.193594
H   15.606089   9.074101   39.309751
H   14.596254   10.969445   36.230460
H   14.252122   11.946645   35.963890
H   14.729489   10.663689   37.617955
H   14.497983   11.399384   38.397321
H   17.965406   5.726070   1.154665
H   18.638935   6.578636   1.240906
H   19.256217   7.136861   0.073671
H   18.898157   6.823848   -0.875812
H   20.232247   8.177942   0.117811
H   20.465528   8.775485   1.413943
H   21.023999   9.721862   1.483703
H   19.928563   8.186096   2.611839
H   20.182662   8.615822   3.564078
H   19.105266   6.995903   2.556689
H   18.534406   5.932771   3.928087
H   16.456943   6.364851   8.238036
H   17.343615   6.701987   7.665387
H   17.484581   6.469688   6.257122
H   16.693527   5.923954   5.745566
H   18.620873   6.921644   5.564070
H   18.407286   7.666712   9.693543
H   19.663943   7.635779   6.204986
H   20.546671   7.975760   5.608824
H   19.459710   8.021648   7.554988
H   20.195214   8.674141   8.042804
H   18.356600   7.477941   8.307425
H   20.539022   8.541900   37.653001
H   18.124322   8.072975   12.346343
H   18.121913   7.061907   12.024905
H   18.146520   6.748661   10.601184
H   18.090636   5.330511   10.274947
H   18.143817   4.968387   9.230212
H   18.006484   4.299243   11.243627
H   18.015775   3.221682   10.917547
H   17.958284   4.627090   12.635168
H   17.970070   3.796485   13.371915
H   17.971331   6.004718   12.995085
H   17.260532   6.430693   14.644741
H   17.756865   4.327534   19.022445
H   18.315459   4.550493   18.110339
H   17.549144   4.898046   16.970485
H   16.441275   4.846764   17.038693
H   18.192655   5.307684   15.755573
H   20.579273   4.513663   19.104540
H   19.607735   5.253484   15.632917
H   20.095201   5.522730   14.733853
H   20.388848   4.862574   16.746581
H   21.522589   4.797568   16.733539
H   19.757986   4.570757   18.031685
H   17.496443   2.028854   21.384961
H   18.297663   2.806309   21.464953
H   19.087144   2.994041   20.299362
H   19.016682   2.336595   19.450481
H   20.064220   4.047285   20.290237
H   20.368650   4.736952   21.507142
H   21.153041   5.486883   21.608999
H   19.584002   4.440896   22.657846
H   19.846281   4.999579   23.596285
H   18.489962   3.489342   22.706198
H   17.342397   3.198324   24.025736
H   18.951767   3.351736   28.693220
H   18.606620   3.904986   27.861749
H   18.666601   3.387114   26.535203
H   19.021111   2.397562   26.441748
H   18.149012   4.122669   25.431838
H   17.557167   5.541649   29.350407
H   17.661418   5.446932   25.568359
H   17.357578   6.085234   24.757802
H   17.520999   5.931967   26.918889
H   17.181644   6.912551   27.008028
H   17.954188   5.164452   28.065694
H   17.037040   6.450866   31.733520
H   17.994602   6.819732   31.387690
H   18.378421   6.350235   30.014568
H   19.663260   6.860984   29.605436
H   19.968710   6.584309   28.546847
H   20.488600   7.685145   30.454317
H   21.429868   7.147402   30.609907
H   19.909609   8.280783   31.707158
H   20.488807   9.042387   32.288867
H   18.718772   7.761506   32.180883
H   17.978959   7.992959   33.914569
H   22.185357   7.557685   36.637391
H   21.177635   8.021605   36.480662
H   20.541696   7.989997   35.222764
H   21.009747   7.520088   34.362769
H   19.231451   8.600445   35.054398
H   21.093066   8.427502   38.882734
H   18.621036   9.242422   36.207579
H   17.600935   9.744148   36.147450
H   19.245188   9.137455   37.487426
H   18.741012   9.595008   38.363848
N   14.982923   12.698247   5.178352
N   15.899772   13.823716   5.578273
N   16.424996   14.753910   4.551954
N   16.208346   14.295062   3.215420
N   14.724044   12.272061   3.803211
N   15.419739   13.050668   2.817882
N   16.393888   15.169689   1.971217
N   15.772940   14.422804   40.517462
N   13.952104   9.988978   18.125724
N   10.238075   13.211419   32.599696
N   16.800496   15.755276   4.813073
N   10.683461   11.488593   31.281825
N   14.364165   12.432081   40.528089
N   15.119771   13.159219   1.329468
N   16.736597   16.320744   1.981979
N   13.151487   16.860310   34.669348
N   15.025307   15.244690   39.463132
N   15.416901   16.568245   39.130554
N   14.635580   17.397838   38.294346
N   11.464844   15.596252   33.289034
N   9.570582   14.509385   32.702347
N   15.835973   13.984185   7.105567
N   14.818068   12.863557   7.618392
N   16.307324   14.893136   7.713479
N   8.318099   16.326256   36.262688
N   15.030656   18.424912   38.137414
N   10.742196   12.760917   33.530252
N   13.282420   11.376910   6.375228
N   14.244717   12.099659   6.374215
N   13.515366   11.278763   18.749074
N   13.058902   12.380318   18.192108
N   11.408414   13.947918   16.876840
N   14.199642   12.052118   14.670583
N   13.020980   12.652721   14.051752
N   12.035165   13.377846   14.862765
N   12.161252   13.406131   16.249813
N   13.239533   12.665355   16.877568
N   14.257358   12.032799   16.072117
N   13.831625   14.805252   38.828513
N   -11.755153   18.872397   1.747644
N   14.109500   9.758527   17.028912
N   14.963294   13.734626   12.304331
N   14.481833   13.190414   11.498979
N   14.977496   13.307386   10.149155
N   13.988949   8.063660   21.149494
N   14.416202   12.657404   9.022884
N   12.542727   12.337466   12.835760
N   13.377961   11.715527   9.410230
N   12.950005   11.073397   8.577169
N   12.825986   11.532446   10.710612
N   12.031970   10.779376   10.934357
N   13.386344   12.301428   11.796900
N   11.240580   13.916766   14.356039
N   14.956990   11.608720   14.029883
N   13.367397   11.275143   20.204728
N   13.212374   10.177887   21.101312
N   13.167743   12.253614   20.635233
N   13.846644   8.978909   20.526255
N   15.094110   11.564238   16.551555
N   14.132450   9.051528   19.166505
N   15.777143   14.016017   10.066930
N   11.134479   10.939023   26.915227
N   10.459796   12.180843   26.322197
N   10.602409   12.559884   24.943838
N   11.256814   11.522891   24.154066
N   11.801900   9.959904   26.098228
N   11.809115   10.205433   24.706072
N   11.629474   11.689182   22.709294
N   12.379347   10.349950   22.312575
N   13.014821   15.653171   38.009180
N   13.481308   13.816250   39.081875
N   10.132410   13.448863   24.501067
N   12.242160   9.096877   26.520953
N   12.608694   8.215779   23.619402
N   12.433771   9.380688   23.566002
N   11.574580   12.744590   22.104503
N   8.756596   14.725437   29.301591
N   14.005408   11.416872   3.632654
N   10.214955   12.475400   31.348379
N   9.804449   12.919080   30.062347
N   9.226480   14.275385   30.145858
N   9.172398   14.780437   31.435211
N   9.692708   12.964147   27.390631
N   9.987966   12.237036   28.773231
N   8.889659   13.811461   27.226955
N   10.221727   29.729774   24.756806
N   8.987005   15.266657   33.879588
N   12.034002   15.303317   37.672617
N   11.330235   10.159980   29.131136
N   10.881963   10.995914   28.405028
N   13.378438   16.991110   37.690173
N   12.526995   17.886752   37.133625
N   9.840720   17.713540   37.635088
N   11.173698   16.053020   34.227810
N   9.810143   15.805417   34.701948
N   9.371087   16.434709   35.941311
N   10.239262   17.260760   36.673732
N   11.628114   17.381007   36.250278
N   12.081369   16.815071   34.978385
N   16.389773   16.913868   39.605690
N   18.565810   11.917875   3.667722
N   19.359007   13.028756   4.339555
N   19.960741   14.070003   3.528464
N   19.760830   13.956767   2.105324
N   18.342468   11.790137   2.258384
N   18.974858   12.787471   1.465393
N   20.449850   14.790574   1.081580
N   20.006337   14.219170   39.429714
N   18.683126   8.383244   16.535265
N   14.307162   14.537133   29.668903
N   20.590426   14.864727   3.988478
N   21.281456   24.929855   26.952933
N   18.343139   12.389376   39.025669
N   19.084701   12.981227   -0.027001
N   21.149456   15.740901   1.329247
N   17.828369   17.359184   32.770395
N   19.553487   15.143367   38.374564
N   19.696173   16.571148   38.400836
N   19.083478   17.373330   37.408232
N   16.186115   16.256683   31.333347
N   14.640374   14.476105   31.087941
N   19.507474   12.745023   5.816351
N   18.660512   11.454497   6.179448
N   20.219623   13.359631   6.534123
N   13.964042   14.875599   34.963759
N   19.289150   18.452423   37.439104
N   21.768533   25.131048   26.149391
N   17.629251   9.940852   4.625440
N   18.122070   10.998362   4.826512
N   18.218691   9.790574   16.863383
N   17.957875   10.722063   15.999994
N   15.757525   9.144092   15.464535
N   17.651317   10.222531   12.254603
N   16.362083   9.628409   12.072370
N   15.715047   9.189904   13.288349
N   16.313754   9.442211   14.586111
N   17.512933   10.184205   14.745361
N   18.197182   10.573050   13.534407
N   18.812665   14.593824   37.239301
N   11.651267   13.102212   8.025902
N   18.971235   8.006779   15.528077
N   17.437320   12.093763   10.797697
N   17.271756   11.440809   9.867896
N   18.047196   11.753351   8.716580
N   18.807579   7.097818   19.810484
N   17.955748   11.055569   7.446705
N   15.706430   9.826372   10.870496
N   17.030709   9.962895   7.439641
N   16.858188   9.418610   6.499486
N   16.169697   9.697673   8.536342
N   15.444850   8.920335   8.392768
N   16.366501   10.337512   9.826405
N   14.734901   8.721447   13.277711
N   18.302933   10.377495   11.380783
N   18.088836   10.101753   18.288823
N   18.118388   9.234377   19.403526
N   17.862613   11.161149   18.501773
N   18.580591   7.882380   19.042263
N   19.158661   11.083277   13.624992
N   18.795626   7.603773   17.669149
N   18.737108   12.594833   8.788268
N   15.758968   10.338101   25.211393
N   15.431012   11.668660   24.584110
N   15.909685   11.960946   23.222418
N   16.450988   10.861401   22.465782
N   16.480820   9.302496   24.491965
N   16.823838   9.536959   23.114619
N   16.983793   11.028285   21.032480
N   17.604724   9.597700   20.759694
N   18.188057   15.410918   36.261900
N   18.638875   13.510397   37.183467
N   15.839573   12.955925   22.777656
N   16.701813   8.364555   24.979529
N   17.753318   7.564742   22.003944
N   17.486559   8.712321   22.033337
N   16.978774   12.008017   20.333930
N   15.011260   11.096894   29.630473
N   17.783787   10.986300   1.910923
N   14.143356   13.961072   28.406482
N   14.400992   12.601604   28.153865
N   14.751158   12.116967   29.483695
N   14.806930   13.202635   30.438295
N   14.733442   12.624926   25.522226
N   14.547555   11.861538   26.815467
N   14.376029   13.759424   25.288728
N   20.987511   33.231708   -9.850336
N   13.969509   14.922924   32.281210
N   17.623374   14.889185   35.453027
N   15.251036   9.520674   27.369457
N   15.302893   10.473118   26.659392
N   18.265931   16.836343   36.350569
N   17.752873   17.583421   35.380129
N   15.694014   16.148854   36.277117
N   16.008577   16.214339   32.406685
N   14.896257   15.459824   33.018715
N   14.814636   15.393105   34.491591
N   15.739974   16.154208   35.213236
N   16.865231   16.881679   34.612497
N   16.986564   16.886798   33.183243
N   20.328746   17.061484   39.216150
N   23.727178   11.488911   1.829973
N   23.935124   12.811336   2.500002
N   24.049694   14.015820   1.697170
N   23.886205   13.825624   0.305284
N   23.700095   11.300651   0.403459
N   23.760798   12.497819   -0.409082
N   23.884498   15.012911   -0.686877
N   23.710110   14.370699   37.699887
N   22.239837   8.250782   15.435608
N   17.753642   12.056195   29.685222
N   24.187238   15.036795   2.099652
N   43.418274   13.485545   11.331588
N   23.124389   12.003396   37.114706
N   23.572777   12.773433   -1.887482
N   23.911739   16.179718   -0.381865
N   19.018394   15.977766   31.277238
N   23.110265   14.985525   36.473899
N   22.482764   16.256015   36.563392
N   21.733646   16.789080   35.449985
N   17.653815   14.014368   30.840394
N   17.313125   11.462015   30.951722
N   23.955464   12.712294   4.020304
N   23.753295   11.112366   4.329862
N   24.007338   13.633952   4.768373
N   18.910450   12.061551   34.573457
N   21.206418   17.769331   35.623083
N   43.960541   13.668583   10.789670
N   23.316949   9.284018   2.756069
N   23.645094   10.435535   2.979347
N   21.657467   9.639547   15.649120
N   21.542723   10.496059   14.691456
N   20.113689   8.491332   13.381241
N   22.715061   10.427135   11.035653
N   21.993353   9.265329   10.563709
N   21.073436   8.583095   11.427944
N   20.827663   9.031015   12.744739
N   21.615794   10.084194   13.300159
N   22.505673   10.795005   12.403110
N   22.992075   14.269556   35.235724
N   21.318954   19.112213   2.907860
N   22.534195   7.821903   14.470327
N   22.656329   11.443064   8.903774
N   22.774911   10.764898   8.080716
N   23.060719   11.303722   6.797340
N   22.352495   7.122127   18.810197
N   23.253788   10.548808   5.599604
N   22.215886   8.669089   9.358188
N   23.072351   9.139039   5.824686
N   23.127957   8.424395   5.008121
N   22.790474   8.560671   7.102384
N   22.604166   7.508395   7.169530
N   22.650212   9.339050   8.296356
N   20.477194   7.779450   10.979869
N   23.600029   10.825137   10.498662
N   21.306577   9.929297   17.053613
N   21.563396   9.145675   18.185208
N   20.774778   10.868566   17.153610
N   22.188353   7.840308   17.990516
N   23.067562   11.604716   12.787865
N   22.425760   7.564269   16.632979
N   23.136520   12.407959   6.696218
N   20.143950   9.497849   24.385735
N   19.671225   10.888445   24.059492
N   19.721157   11.372023   22.688874
N   20.332800   10.581642   21.634732
N   20.840046   8.689519   23.416784
N   20.924462   9.255741   22.084826
N   20.504962   10.744979   20.147360
N   21.268912   9.490758   19.584847
N   22.254365   14.838296   34.144794
N   23.467120   13.228761   35.152229
N   19.276812   12.351355   22.483608
N   21.267489   7.732228   23.594096
N   22.184629   7.568665   20.934724
N   21.589778   8.614856   20.871833
N   20.030170   11.677772   19.558042
N   17.944421   8.814474   28.465737
N   23.663260   10.338322   -0.085412
N   18.236104   12.080021   28.401935
N   18.468724   10.856666   27.747594
N   18.024391   9.857791   28.733172
N   17.656749   10.459284   30.010758
N   18.990682   11.596772   25.250184
N   19.172818   10.608926   26.403050
N   18.337445   12.616209   25.186547
N   20.632110   11.249785   37.247119
N   17.635667   11.707941   32.272089
N   22.219987   14.229165   33.209251
N   20.399255   8.497720   26.559571
N   19.902015   9.323987   25.895351
N   21.477031   16.034551   34.261099
N   20.387186   16.291042   33.493492
N   20.206320   14.065304   35.121000
N   18.255059   14.023783   31.700562
N   18.189678   12.877326   32.615026
N   18.886738   12.905705   33.887849
N   19.613561   14.065077   34.206696
N   19.730598   15.146350   33.217458
N   18.976978   15.194681   31.993774
N   22.515711   16.919911   37.457015
